<configuration>
  <input>
    <net-file value="exp.net.xml"/>
    <route-files value="dyn.gen.rou_unbalanced.xml"/>
  </input>
  <time>
    <begin value="0"/>
    <end value="3600"/>
  </time>
</configuration>
